3    
Iteration 0 Energy -92.20270517
C        0.0000000000    0.0000000000    0.0000000000
N        0.0000000000    0.0000000000    1.1483800000
H       -1.5853600000    0.0000000000    1.1483800000
3    
Iteration 1 Energy -92.20332415
C       -0.0131492295    0.0000047076    0.0002748859
N        0.0092617710    0.0000029683    1.1554447035
H       -1.5834042548   -0.0000013801    1.1447228383
3    
Iteration 2 Energy -92.20391242
C       -0.0328868365    0.0000009764    0.0018925872
N        0.0221796274    0.0000001173    1.1646884382
H       -1.5800008462   -0.0000011038    1.1392915824
3    
Iteration 3 Energy -92.20449865
C       -0.0625392653   -0.0000029475    0.0066346799
N        0.0398716902   -0.0000032200    1.1761706126
H       -1.5740270911   -0.0000009351    1.1311806274
3    
Iteration 4 Energy -92.20557805
C       -0.1069229416   -0.0000054261    0.0178991967
N        0.0630743599   -0.0000060573    1.1892211784
H       -1.5634391567   -0.0000011624    1.1190290212
3    
Iteration 5 Energy -92.20768189
C       -0.1553951686   -0.0000014979    0.0347478294
N        0.0847780554   -0.0000049273    1.1997775324
H       -1.5500441022   -0.0000024991    1.1053414437
3    
Iteration 6 Energy -92.21070637
C       -0.1995018125    0.0000054129    0.0535908299
N        0.1013711763   -0.0000012983    1.2069593678
H       -1.5362704047   -0.0000043147    1.0923466633
3    
Iteration 7 Energy -92.21492933
C       -0.2432850709    0.0000132508    0.0749916073
N        0.1142730457    0.0000034632    1.2124431840
H       -1.5208105259   -0.0000062527    1.0789226682
3    
Iteration 8 Energy -92.22107493
C       -0.2901673731    0.0000207531    0.0995539553
N        0.1210567079    0.0000084599    1.2175320901
H       -1.5007421562   -0.0000079784    1.0641144060
3    
Iteration 9 Energy -92.22865428
C       -0.3310642018    0.0000233510    0.1186436211
N        0.1077743261    0.0000105096    1.2240687054
H       -1.4736444074   -0.0000082946    1.0513081292
3    
Iteration 10 Energy -92.23546818
C       -0.3593927681    0.0000222150    0.1269578797
N        0.0748090777    0.0000099903    1.2325969948
H       -1.4429986963   -0.0000076503    1.0428851164
3    
Iteration 11 Energy -92.24102995
C       -0.3935385302    0.0000266441    0.1394832609
N        0.0490686741    0.0000129600    1.2404256622
H       -1.4130443312   -0.0000085033    1.0327178849
3    
Iteration 12 Energy -92.24476556
C       -0.4313633394    0.0000337307    0.1554589323
N        0.0292903540    0.0000180737    1.2472669649
H       -1.3842241713   -0.0000099545    1.0213255143
3    
Iteration 13 Energy -92.24606138
C       -0.4720561195    0.0000629321    0.1734536864
N        0.0143129398    0.0000330829    1.2520527459
H       -1.3563157004   -0.0000135693    1.0099978298
3    
Iteration 14 Energy -92.24602467
C       -0.4807854296    0.0000222535    0.1748313219
N        0.0253805076   -0.0001482422    1.2442320016
H       -1.3589010548   -0.0001884997    1.0158317521
3    
Iteration 15 Energy -92.24601953
C       -0.4850410032    0.0001130010    0.1753397288
N        0.0306458379   -0.0001066576    1.2397752221
H       -1.3587949367   -0.0001470171    1.0168914927
3    
Iteration 16 Energy -92.24601960
C       -0.4849643370    0.0001654231    0.1750762037
N        0.0310383226   -0.0001082743    1.2392741532
H       -1.3588673808   -0.0001447750    1.0172231775
