8    
Iteration 0 Energy -78.78901866
C       -4.1335981646    0.7031867582    0.0000000000
H       -3.5353267624   -0.1651119546   -0.1796187607
H       -4.0703589241    1.3601150842   -0.8417720585
H       -5.1516621370    0.4103272871    0.1480314696
C       -3.6204276482    1.4289002192    1.2569843911
H       -3.6818360213    2.4863642285    1.1082123793
H       -4.2199221712    1.1518077725    2.0983881728
H       -2.6029713325    1.1527578946    1.4377115310
8    
Iteration 1 Energy -78.78770229
C       -4.1609416457    0.6784939074    0.0073873871
H       -3.4832885730   -0.1177544935   -0.2763382342
H       -4.1293586112    1.3477344926   -0.8439909581
H       -5.1783980673    0.3183561275    0.1012420909
C       -3.6480874933    1.4358398649    1.2820731034
H       -3.5640240438    2.5004806892    1.0998678174
H       -4.2347858951    1.2307508438    2.1694562566
H       -2.6275966205    1.1372993881    1.4899135100
8    
Iteration 2 Energy -78.78646843
C       -4.1615867713    0.6751528584    0.0135822112
H       -3.4385730317   -0.0656849431   -0.3209865079
H       -4.1986476083    1.3672618162   -0.8294661251
H       -5.1548218438    0.2527547449    0.1240034648
C       -3.6549330495    1.4365384807    1.2804584513
H       -3.4881055507    2.4909132645    1.0707251908
H       -4.2763313321    1.2900181410    2.1576841497
H       -2.6534726937    1.0842373885    1.5335981897
8    
Iteration 3 Energy -78.78719651
C       -4.1483823216    0.6853317952    0.0165867455
H       -3.3991735334   -0.0253876173   -0.3539091513
H       -4.2923250997    1.3999595815   -0.8196292512
H       -5.1035095334    0.1918636407    0.1736304519
C       -3.6481758729    1.4333831827    1.2652433505
H       -3.4290744363    2.4852868156    1.0434424574
H       -4.3283097230    1.3506659788    2.1084620913
H       -2.6774920301    1.0100590432    1.5957551016
8    
Iteration 4 Energy -78.78715046
C       -4.1446537383    0.6885429844    0.0184847635
H       -3.3842180197   -0.0010958898   -0.3739422407
H       -4.3314490176    1.4081376377   -0.8103390923
H       -5.0803229021    0.1604741507    0.1894206624
C       -3.6469571986    1.4318925061    1.2603298959
H       -3.3962699782    2.4777974289    1.0342753310
H       -4.3481944846    1.3832005924    2.0906603285
H       -2.6943240332    0.9821399914    1.6207036459
8    
Iteration 5 Energy -78.78808348
C       -4.1365365394    0.6998172537    0.0160271318
H       -3.3754782803    0.0233776740   -0.3950867429
H       -4.3833308702    1.4188778336   -0.7955231598
H       -5.0381504354    0.1198799968    0.2131348462
C       -3.6368703359    1.4269090788    1.2517398663
H       -3.3644835372    2.4674634506    1.0307327866
H       -4.3724832087    1.4299971905    2.0560731763
H       -2.7186981468    0.9443993246    1.6526294137
8    
Iteration 6 Energy -78.78890569
C       -4.1288320283    0.7104974421    0.0096014894
H       -3.3717571594    0.0429420804   -0.4159101465
H       -4.4327921013    1.4230279768   -0.7795818525
H       -4.9944887590    0.0860312358    0.2338113287
C       -3.6239414631    1.4233345360    1.2456513008
H       -3.3369204251    2.4587361512    1.0325484045
H       -4.3906005407    1.4727137985    2.0198514748
H       -2.7462703872    0.9129279804    1.6839195183
8    
Iteration 7 Energy -78.78956169
C       -4.1257559808    0.7138788287    0.0034403372
H       -3.3705301004    0.0538170603   -0.4274911490
H       -4.4567561427    1.4216615090   -0.7680253417
H       -4.9725170851    0.0704180949    0.2421709071
C       -3.6162313797    1.4236269532    1.2452842434
H       -3.3218565252    2.4534576632    1.0342405440
H       -4.3973581328    1.4935870197    2.0022422346
H       -2.7643316963    0.8993533260    1.6981409941
8    
Iteration 8 Energy -78.79039686
C       -4.1266902113    0.7119706983   -0.0065749557
H       -3.3718616315    0.0610693211   -0.4344029558
H       -4.4658084446    1.4140100664   -0.7605333394
H       -4.9643469943    0.0660981550    0.2426786976
C       -3.6091939077    1.4275356464    1.2516354136
H       -3.3131541733    2.4486344011    1.0367108713
H       -4.3969989791    1.5007927802    1.9965809020
H       -2.7770239729    0.8991852213    1.7040200013
8    
Iteration 9 Energy -78.79063327
C       -4.1307292308    0.7071690218   -0.0092644018
H       -3.3722545942    0.0609269885   -0.4330662816
H       -4.4572961960    1.4102198524   -0.7640670385
H       -4.9741201817    0.0708939699    0.2360601117
C       -3.6106073187    1.4304081617    1.2576483411
H       -3.3144411318    2.4481742628    1.0363844769
H       -4.3926068723    1.4940980742    2.0064865533
H       -2.7730674621    0.9073596624    1.6999156637
8    
Iteration 10 Energy -78.79068583
C       -4.1335537062    0.7044470557   -0.0089940850
H       -3.3717248465    0.0601636254   -0.4306044371
H       -4.4495821902    1.4097323117   -0.7669515580
H       -4.9820818229    0.0743091558    0.2317896329
C       -3.6130629145    1.4312885614    1.2605935776
H       -3.3166445856    2.4483685218    1.0349298544
H       -4.3901870792    1.4887456403    2.0141365751
H       -2.7683636027    0.9122420367    1.6951903366
8    
Iteration 11 Energy -78.79069651
C       -4.1338905465    0.7042922185   -0.0086790975
H       -3.3713302483    0.0606173493   -0.4305782308
H       -4.4492318719    1.4099675673   -0.7669270735
H       -4.9825294286    0.0740283269    0.2314915453
C       -3.6135068947    1.4311709133    1.2607538084
H       -3.3163232422    2.4481706253    1.0344620116
H       -4.3902258451    1.4888563929    2.0147315611
H       -2.7681555802    0.9122066107    1.6948218020
8    
Iteration 12 Energy -78.79070248
C       -4.1339257582    0.7043259515   -0.0085700136
H       -3.3711439975    0.0610081122   -0.4307801031
H       -4.4495566358    1.4100454510   -0.7667286502
H       -4.9822892593    0.0736522547    0.2315786788
C       -3.6135921947    1.4310957328    1.2607168170
H       -3.3159123582    2.4479905372    1.0342954464
H       -4.3903931815    1.4892603969    2.0145992199
H       -2.7683900252    0.9119328791    1.6949639192
8    
Iteration 13 Energy -78.79070603
C       -4.1339188067    0.7043465837   -0.0085467194
H       -3.3710454738    0.0612518743   -0.4309511384
H       -4.4498530038    1.4100596747   -0.7665902440
H       -4.9820695872    0.0734008554    0.2316605039
C       -3.6135979227    1.4310731276    1.2606903518
H       -3.3156234065    2.4478804637    1.0342262106
H       -4.3905016007    1.4895492102    2.0144496730
H       -2.7685936300    0.9117392522    1.6951273191
8    
Iteration 14 Energy -78.79070736
C       -4.1341341176    0.7040329283   -0.0090482662
H       -3.3711126907    0.0612329169   -0.4313004262
H       -4.4500555184    1.4097848660   -0.7669585976
H       -4.9822891655    0.0732336602    0.2311740103
C       -3.6134111877    1.4313722983    1.2612311358
H       -3.3153756827    2.4479620956    1.0344896138
H       -4.3902818165    1.4897028129    2.0149247474
H       -2.7684980804    0.9119861923    1.6956062270
8    
Iteration 15 Energy -78.79070942
C       -4.1339010089    0.7043580518   -0.0085562282
H       -3.3709585688    0.0614849152   -0.4311445606
H       -4.4501779743    1.4100535024   -0.7664594882
H       -4.9818349654    0.0731488730    0.2317356124
C       -3.6135775342    1.4310686110    1.2606770534
H       -3.3153250218    2.4477769873    1.0341862500
H       -4.3906031452    1.4898403274    2.0142912217
H       -2.7688110847    0.9115478918    1.6953295649
8    
Iteration 16 Energy -78.79071020
C       -4.1338987062    0.7043590654   -0.0085559362
H       -3.3709297219    0.0615382498   -0.4311765539
H       -4.4502401904    1.4100595045   -0.7664267235
H       -4.9817936953    0.0731061188    0.2317593607
C       -3.6135773004    1.4310699056    1.2606743131
H       -3.3152653651    2.4477559898    1.0341619701
H       -4.3906283318    1.4898906151    2.0142587363
H       -2.7688564480    0.9115055314    1.6953612651
