8    
Scan Cycle 1/3 ; Dihedral 2-1-5-6 = 100.00 ; Iteration 8 Energy -78.79071135
C       -4.1339584282    0.7044907155   -0.0085618263
H       -3.3707842140    0.0618363615   -0.4310413020
H       -4.4505254872    1.4100222073   -0.7664741819
H       -4.9816703423    0.0730330326    0.2319663494
C       -3.6138032163    1.4314308418    1.2605480224
H       -3.3155724517    2.4480744603    1.0337825678
H       -4.3910352112    1.4903346075    2.0139727832
H       -2.7691315992    0.9119785936    1.6954270273
8    
Scan Cycle 2/3 ; Dihedral 2-1-5-6 = 110.00 ; Iteration 6 Energy -78.78987625
C       -4.1353826260    0.7020768797   -0.0083157758
H       -3.4041729619   -0.0056095108   -0.3798594895
H       -4.3613306626    1.4033121768   -0.8019422578
H       -5.0396393914    0.1455115568    0.2077854673
C       -3.6156162971    1.4327040128    1.2622821648
H       -3.4002641975    2.4739143124    1.0548287568
H       -4.3566126141    1.4095594201    2.0525566679
H       -2.7134621995    0.9697319722    1.6422839064
8    
Scan Cycle 3/3 ; Dihedral 2-1-5-6 = 120.00 ; Iteration 6 Energy -78.78956567
C       -4.1376504479    0.6994560128   -0.0065961576
H       -3.4438633623   -0.0688009015   -0.3254526474
H       -4.2672074003    1.3890463867   -0.8317839706
H       -5.0932026689    0.2240442176    0.1783246797
C       -3.6190123896    1.4333291820    1.2640270753
H       -3.4876981695    2.4923130435    1.0781819130
H       -4.3135562923    1.3273246041    2.0884444056
H       -2.6642902192    1.0344882748    1.5844741420
