72   
Iteration 8 Energy -1692.10986588
C       -0.5168251013   -0.3993188468    0.8728012072
H       -1.4631281195   -0.9304592198    0.8791645920
C       -0.5173342956    1.0282131418    0.8510237704
H       -1.4633256566    1.5594325681    0.8421196789
C        0.6542028265    1.7176667416    0.8470050935
H        0.6581711061    2.8030941826    0.8403657876
C        1.9105786541    1.0364155524    0.8612250581
C        1.9110509494   -0.4096005208    0.8708881128
C        0.6536930793   -1.0905582729    0.8799311639
H        0.6556856578   -2.1764145518    0.8935596766
C        3.1143658982    1.7152653307    0.8664728970
H        3.1136364525    2.8013892293    0.8700242266
C        4.3491867799    1.0371090844    0.8713442986
C        4.3492983019   -0.4103696966    0.8724872577
C        3.1142746214   -1.0886641142    0.8779290715
H        3.1135169730   -2.1753751711    0.8857611445
C        5.5686966811    1.7158191471    0.8740535920
H        5.5685429595    2.8017737545    0.8841163179
C        6.7886966251    1.0372514729    0.8699619090
C        6.7881283408   -0.4100533049    0.8660727778
C        5.5682915935   -1.0888820872    0.8724440761
H        5.5683956578   -2.1755167539    0.8733915611
C        8.0231578560    1.7154212459    0.8715148108
H        8.0235651647    2.8014275041    0.8867633932
C        9.2273816235    1.0369450593    0.8634460879
C        9.2261335517   -0.4086365556    0.8540099657
C        8.0223525125   -1.0879262732    0.8595406358
H        8.0232885610   -2.1746839308    0.8559244185
C       10.4840498289    1.7181110842    0.8700384412
H       10.4806739103    2.8031974795    0.8954171872
C       11.6549826192    1.0289800027    0.8630514921
H       12.6004011434    1.5589045106    0.8875666011
C       11.6530507706   -0.3978043731    0.8467434059
H       12.5995821120   -0.9277796843    0.8479577301
C       10.4832470199   -1.0894370367    0.8446034527
H       10.4812497229   -2.1754165896    0.8372383188
C        0.7426482501    0.4909372277    4.1379394832
H       -0.2027503305   -0.0390344253    4.1136837225
C        0.7444126000    1.9177194434    4.1540642596
H       -0.2021501457    2.4476384580    4.1529848158
C        1.9141487434    2.6094637303    4.1558362908
H        1.9160848348    3.6954463544    4.1630537701
C        3.1712916822    1.9286970533    4.1462061463
C        3.1702951634    0.4831116934    4.1369073546
C        1.9136479848   -0.1980822743    4.1307186261
H        1.9171118338   -1.2831668860    4.1054076221
C        4.3750770101    2.6079794872    4.1403246856
H        4.3740878924    3.6947349212    4.1438712265
C        5.6093601176    1.9301865428    4.1335651558
C        5.6089084920    0.4828845794    4.1297166283
C        4.3745099008   -0.1953756270    4.1285285842
H        4.3741494328   -1.2813846703    4.1133284446
C        6.8292237891    2.6089785094    4.1269950848
H        6.8290976431    3.6956119932    4.1260838397
C        8.0482409789    1.9304738248    4.1268609576
C        8.0483985059    0.4829946444    4.1279346869
C        6.8288901374   -0.1956967297    4.1253604065
H        6.8290320606   -1.2816519488    4.1153182027
C        9.2833464273    2.6086375370    4.1215262142
H        9.2841145097    3.6953454139    4.1138174012
C       10.4865911639    1.9295970042    4.1287103190
C       10.4869403265    0.4835846614    4.1382293552
C        9.2831573271   -0.1952609086    4.1327750968
H        9.2838384870   -1.2813880181    4.1292075541
C       11.7439958274    2.6104870151    4.1200809921
H       11.7420685329    3.6963458250    4.1066106232
C       12.9144767908    1.9191886278    4.1274974478
H       13.8607867520    2.4503220851    4.1215172109
C       12.9148714199    0.4916491602    4.1491119052
H       13.8608228644   -0.0396370196    4.1582816730
C       11.7432796337   -0.1977135002    4.1527023666
H       11.7392512917   -1.2831405982    4.1592796765
