3    
Iteration 0 Energy -92.20273240
C        0.0000000000    0.0000000000    0.0000000000
N        0.0000000000    0.0000000000    1.1483800000
H       -1.5853600000    0.0000000000    1.1483800000
3    
Iteration 1 Energy -92.20335145
C       -0.0131577871   -0.0000000000    0.0002666615
N        0.0092573934   -0.0000000000    1.1554380089
H       -1.5834096481   -0.0000000000    1.1447184705
3    
Iteration 2 Energy -92.20393841
C       -0.0328851064   -0.0000000000    0.0018845169
N        0.0221801421   -0.0000000000    1.1646827732
H       -1.5800071099   -0.0000000000    1.1392877986
3    
Iteration 3 Energy -92.20452323
C       -0.0625278396   -0.0000000000    0.0066264185
N        0.0398769737   -0.0000000000    1.1761655110
H       -1.5740338205   -0.0000000000    1.1311763251
3    
Iteration 4 Energy -92.20560085
C       -0.1069042361   -0.0000000000    0.0178873397
N        0.0630838431   -0.0000000000    1.1892149370
H       -1.5634486365   -0.0000000000    1.1190221851
3    
Iteration 5 Energy -92.20770382
C       -0.1553821028   -0.0000000000    0.0347273168
N        0.0847833565   -0.0000000000    1.1997635952
H       -1.5500591512   -0.0000000000    1.1053286452
3    
Iteration 6 Energy -92.21072815
C       -0.1994997322   -0.0000000000    0.0535597966
N        0.1013670849   -0.0000000000    1.2069349591
H       -1.5362920143   -0.0000000000    1.0923272179
3    
Iteration 7 Energy -92.21495138
C       -0.2432959409   -0.0000000000    0.0749490802
N        0.1142563731   -0.0000000000    1.2124075483
H       -1.5208384261   -0.0000000000    1.0788966358
3    
Iteration 8 Energy -92.22109795
C       -0.2901906258   -0.0000000000    0.0994989478
N        0.1210203603   -0.0000000000    1.2174859358
H       -1.5007729841   -0.0000000000    1.0640827614
3    
Iteration 9 Energy -92.22867766
C       -0.3310834819   -0.0000000000    0.1185740095
N        0.1077106166   -0.0000000000    1.2240196102
H       -1.4736716517   -0.0000000000    1.0512784315
3    
Iteration 10 Energy -92.23549094
C       -0.3594068171   -0.0000000000    0.1268849473
N        0.0747419219   -0.0000000000    1.2325470470
H       -1.4430256603   -0.0000000000    1.0428591268
3    
Iteration 11 Energy -92.24105281
C       -0.3935670181   -0.0000000000    0.1394067481
N        0.0490017148   -0.0000000000    1.2403658225
H       -1.4130754495   -0.0000000000    1.0326888705
3    
Iteration 12 Energy -92.24478851
C       -0.4314141946   -0.0000000000    0.1553769752
N        0.0292260207   -0.0000000000    1.2471909540
H       -1.3842639857   -0.0000000000    1.0212912658
3    
Iteration 13 Energy -92.24608475
C       -0.4721283834   -0.0000000000    0.1733235759
N        0.0142471807   -0.0000000000    1.2519196223
H       -1.3564173592   -0.0000000000    1.0099538241
3    
Iteration 14 Energy -92.24604777
C       -0.4799713962    0.0000000007    0.1745210727
N        0.0262592039    0.0000000007    1.2438878331
H       -1.3580030685    0.0000000007    1.0155932098
3    
Iteration 15 Energy -92.24604260
C       -0.4847644610    0.0000000004    0.1749783280
N        0.0312149542    0.0000000004    1.2392652575
H       -1.3582937794    0.0000000004    1.0167748572
3    
Iteration 16 Energy -92.24604267
C       -0.4847919629    0.0000000004    0.1746939853
N        0.0314990063    0.0000000004    1.2387485226
H       -1.3584555969    0.0000000004    1.0170827113
