8    
Scan Cycle 1/3 ; Dihedral 2-1-5-6 = 100.00 ; Iteration 17 Energy -78.79071062
C       -4.1339732173    0.7044459571   -0.0085595305
H       -3.3708619840    0.0617114978   -0.4310529578
H       -4.4504181820    1.4099752119   -0.7665500033
H       -4.9817637626    0.0730837444    0.2318273505
C       -3.6138310931    1.4314605667    1.2605718249
H       -3.3156477027    2.4481454071    1.0338878227
H       -4.3909291455    1.4902883507    2.0141040493
H       -2.7690558628    0.9120900844    1.6953908843
8    
Scan Cycle 2/3 ; Dihedral 2-1-5-6 = 110.00 ; Iteration 14 Energy -78.78987663
C       -4.1354008837    0.7021148378   -0.0083544033
H       -3.4041523103   -0.0055021064   -0.3799066240
H       -4.3614792118    1.4032880288   -0.8019882347
H       -5.0395937058    0.1454211097    0.2077707321
C       -3.6155730102    1.4326748738    1.2623054824
H       -3.4001682726    2.4738479821    1.0548045758
H       -4.3566278095    1.4096606139    2.0525527658
H       -2.7134857459    0.9696954803    1.6424351461
8    
Scan Cycle 3/3 ; Dihedral 2-1-5-6 = 120.00 ; Iteration 14 Energy -78.78956568
C       -4.1375882881    0.6994319094   -0.0065820131
H       -3.4438620733   -0.0688431427   -0.3255808298
H       -4.2673092986    1.3890928073   -0.8316873733
H       -5.0930840482    0.2239639856    0.1784155517
C       -3.6190144532    1.4333744606    1.2639761710
H       -3.4876129340    2.4923857696    1.0782571626
H       -4.3136284884    1.3274211985    2.0883251513
H       -2.6643813660    1.0343738318    1.5844956201
