10   
Iteration 0 Energy -412.51505740
C        0.8483770000   -0.1199780000    0.9694170000
C       -0.7027440000    0.1603490000    1.1788950000
C       -1.4419690000    0.3043100000   -0.1819680000
O       -0.6900540000    0.5216620000   -1.1498970000
O        1.3643650000    0.4024010000   -0.0596610000
H       -0.7203730000    1.0564580000    1.8261960000
H       -1.3437940000   -0.5547600000    1.8092640000
H        0.4366550000    0.4159660000   -0.7687280000
O       -2.6601540000    0.1897220000   -0.1543460000
O        1.5422840000   -0.5495830000    1.9072410000
10   
Iteration 1 Energy -412.51909742
C        0.8497495382   -0.1211078900    0.9753630149
C       -0.7011987166    0.1593017604    1.1798975752
C       -1.4456692592    0.3027460542   -0.1768256982
O       -0.6973895702    0.5174699211   -1.1587419945
O        1.3725437929    0.4046871402   -0.0558839901
H       -0.7193492943    1.0559145116    1.8237632285
H       -1.3362212555   -0.5545627026    1.8079832116
H        0.4417396711    0.4258236183   -0.7860412525
O       -2.6638232710    0.1903427835   -0.1491264725
O        1.5318253661   -0.5548592083    1.9163711611
10   
Iteration 2 Energy -412.52442251
C        0.8516453597   -0.1242775849    0.9864029753
C       -0.6971121009    0.1577940737    1.1818267652
C       -1.4469464631    0.3001354811   -0.1692254982
O       -0.6982543374    0.5099034577   -1.1686017968
O        1.3744660361    0.4084615172   -0.0518042193
H       -0.7168886847    1.0560716542    1.8184207504
H       -1.3213702092   -0.5528980976    1.8058846507
H        0.4316671519    0.4415010888   -0.8067018449
O       -2.6649583537    0.1919907795   -0.1477021682
O        1.5186496464   -0.5644006442    1.9291795400
10   
Iteration 3 Energy -412.53140217
C        0.8448829781   -0.1311930613    1.0062639714
C       -0.6896120636    0.1560064226    1.1812752379
C       -1.4511470621    0.2986721723   -0.1637074130
O       -0.7074643718    0.5119328333   -1.1828993048
O        1.3620192972    0.4006099304   -0.0537724860
H       -0.7159321748    1.0597300138    1.8013463258
H       -1.2863016083   -0.5511478614    1.7984860823
H        0.4424564690    0.4631803807   -0.8126627122
O       -2.6694448028    0.1890800424   -0.1405519903
O        1.5017654883   -0.5723224678    1.9436628855
10   
Iteration 4 Energy -412.53697720
C        0.8419921806   -0.1312143264    1.0265061068
C       -0.6791164291    0.1552242037    1.1803870419
C       -1.4511065386    0.2978750996   -0.1499332599
O       -0.7058325942    0.5181585636   -1.1875052185
O        1.3557509236    0.3830589883   -0.0514818121
H       -0.7241227873    1.0708161938    1.7729741765
H       -1.2310999504   -0.5574924573    1.7941468265
H        0.4148510428    0.4887085163   -0.8307682540
O       -2.6671732831    0.1877784855   -0.1435969831
O        1.4766838563   -0.5883571705    1.9668558533
10   
Iteration 5 Energy -412.53987058
C        0.8310235332   -0.1253704194    1.0399379857
C       -0.6751873432    0.1566154348    1.1778254352
C       -1.4561667725    0.3005434605   -0.1473136112
O       -0.7179045558    0.5470606045   -1.1874310327
O        1.3462099277    0.3485310070   -0.0633515394
H       -0.7466773607    1.0868479552    1.7409974925
H       -1.1807125745   -0.5738495404    1.7959351331
H        0.4417246147    0.4957755745   -0.8172608517
O       -2.6723391872    0.1811415561   -0.1357047907
O        1.4608788248   -0.5931782832    1.9743446271
10   
Iteration 6 Energy -412.54142045
C        0.8369043565   -0.1112147916    1.0477093827
C       -0.6766610330    0.1591108411    1.1808037627
C       -1.4569572634    0.2994299397   -0.1404306217
O       -0.7173793985    0.5795660972   -1.1743658993
O        1.3510312652    0.2950025018   -0.0795580760
H       -0.7766430568    1.1045256235    1.7121643297
H       -1.1423050853   -0.5924346751    1.8021391197
H        0.4345858849    0.5127851527   -0.8147078912
O       -2.6717148712    0.1737533472   -0.1399036763
O        1.4498589841   -0.5966692228    1.9848110715
10   
Iteration 7 Energy -412.54158553
C        0.8390743469   -0.0967347042    1.0520256495
C       -0.6762338971    0.1538403355    1.1811073441
C       -1.4564787938    0.3102490262   -0.1383475675
O       -0.7181203994    0.5968650098   -1.1716981306
O        1.3538303766    0.2517810419   -0.0902578096
H       -0.7933593716    1.0887231893    1.7270619445
H       -1.1253996399   -0.6179267929    1.7832374985
H        0.4301915524    0.4920422523   -0.8318663860
O       -2.6722981876    0.1990555226   -0.1379878640
O        1.4524260508   -0.5523850543    2.0055532954
10   
Iteration 8 Energy -412.54150038
C        0.8434131378   -0.0798235194    1.0586771774
C       -0.6746833322    0.1541953206    1.1811915104
C       -1.4516029838    0.3199073912   -0.1430657556
O       -0.7102043793    0.5602382173   -1.1836211626
O        1.3443486538    0.2568749972   -0.0958707381
H       -0.8153761148    1.0722270943    1.7480387292
H       -1.1179248811   -0.6425149415    1.7613615796
H        0.4245563104    0.4657802477   -0.8215284172
O       -2.6713839351    0.2517012214   -0.1312057173
O        1.4668903502   -0.5311212030    2.0052846729
10   
Iteration 9 Energy -412.54157016
C        0.8411355189   -0.0881226442    1.0564409083
C       -0.6753992805    0.1564326485    1.1822569734
C       -1.4524974464    0.3144570538   -0.1418679463
O       -0.7122583523    0.5787397099   -1.1781049587
O        1.3453663140    0.2550194182   -0.0941991929
H       -0.8049102823    1.0832439751    1.7379358157
H       -1.1226329783   -0.6288018291    1.7728820080
H        0.4249575307    0.4792462329   -0.8219649777
O       -2.6704463352    0.2216957254   -0.1358523009
O        1.4616018814   -0.5466636791    2.0020492389
10   
Iteration 10 Energy -412.54159988
C        0.8399233827   -0.0927311773    1.0550426118
C       -0.6758238278    0.1571268521    1.1825396363
C       -1.4531181515    0.3117548663   -0.1411977824
O       -0.7138218972    0.5892019026   -1.1750501294
O        1.3463054732    0.2535038040   -0.0933561575
H       -0.7989139001    1.0885527909    1.7323036048
H       -1.1252793462   -0.6215123320    1.7790220894
H        0.4256491661    0.4865020196   -0.8225544627
O       -2.6698816150    0.2060768853   -0.1383238031
O        1.4587855878   -0.5535515337    2.0009216019
10   
Iteration 11 Energy -412.54162957
C        0.8401268945   -0.0936975160    1.0535031621
C       -0.6759228003    0.1563016817    1.1824044864
C       -1.4537280713    0.3118279386   -0.1394017881
O       -0.7146286453    0.5893582711   -1.1745900053
O        1.3506290405    0.2504244939   -0.0925406800
H       -0.7995076259    1.0871673228    1.7328800018
H       -1.1241941771   -0.6226440058    1.7795747518
H        0.4253636292    0.4895182240   -0.8293525639
O       -2.6702441959    0.2072359412   -0.1377514793
O        1.4560978216   -0.5502243751    2.0043750348
10   
Iteration 12 Energy -412.54164016
C        0.8407254397   -0.0923039013    1.0540486810
C       -0.6760216858    0.1552512869    1.1823974385
C       -1.4533723510    0.3139392968   -0.1392053392
O       -0.7143277243    0.5885583635   -1.1754607038
O        1.3505650980    0.2461213759   -0.0936133775
H       -0.8021752588    1.0830454688    1.7373173896
H       -1.1226748162   -0.6269113384    1.7753687243
H        0.4240178197    0.4851746463   -0.8320479278
O       -2.6702608103    0.2140891743   -0.1368435528
O        1.4576203985   -0.5421825141    2.0076393432
10   
Iteration 13 Energy -412.54165009
C        0.8411962711   -0.0902724440    1.0543302693
C       -0.6758286890    0.1536107944    1.1816109133
C       -1.4535942533    0.3169161643   -0.1393432709
O       -0.7143296793    0.5853987073   -1.1767622778
O        1.3503915995    0.2407526100   -0.0958535809
H       -0.8056629078    1.0770290774    1.7425943734
H       -1.1214318510   -0.6339470242    1.7704455507
H        0.4255714537    0.4799979364   -0.8329871381
O       -2.6711898314    0.2249652297   -0.1347567275
O        1.4592387734   -0.5307950348    2.0114767080
10   
Iteration 14 Energy -412.54166331
C        0.8416293325   -0.0877043627    1.0551408098
C       -0.6766735856    0.1508887661    1.1808286358
C       -1.4541958702    0.3214898502   -0.1398309543
O       -0.7155490475    0.5857663787   -1.1777592995
O        1.3491972353    0.2307863636   -0.0998435990
H       -0.8099773779    1.0684814352    1.7503891200
H       -1.1201902626   -0.6418050559    1.7615746201
H        0.4295840778    0.4706316190   -0.8329538185
O       -2.6726389819    0.2368093808   -0.1319975288
O        1.4632408417   -0.5132990241    2.0165029700
10   
Iteration 15 Energy -412.54168040
C        0.8422191042   -0.0833465126    1.0556721706
C       -0.6762116072    0.1475893826    1.1789720324
C       -1.4544207174    0.3281160480   -0.1400235309
O       -0.7158474393    0.5839779771   -1.1793443616
O        1.3482758207    0.2167018146   -0.1053580659
H       -0.8159683759    1.0564787381    1.7601525047
H       -1.1181110318   -0.6552895747    1.7519336024
H        0.4327017421    0.4606625632   -0.8343315325
O       -2.6738161812    0.2554022784   -0.1284100858
O        1.4667156011   -0.4882528042    2.0238376961
10   
Iteration 16 Energy -412.54168978
C        0.8441354132   -0.0786649123    1.0561706700
C       -0.6769158685    0.1440546944    1.1781155649
C       -1.4544536700    0.3350365101   -0.1398840986
O       -0.7162582352    0.5844951013   -1.1806686264
O        1.3475578369    0.2029517385   -0.1106124841
H       -0.8219956556    1.0442922844    1.7711979211
H       -1.1150920014   -0.6657921275    1.7387851374
H        0.4331409978    0.4493032595   -0.8374599964
O       -2.6746105580    0.2731777892   -0.1252993752
O        1.4726770636   -0.4614312493    2.0308449385
10   
Iteration 17 Energy -412.54169373
C        0.8462447904   -0.0712936832    1.0556830750
C       -0.6748433854    0.1426739628    1.1761750406
C       -1.4532507436    0.3422872352   -0.1395050925
O       -0.7147920912    0.5793985533   -1.1835521553
O        1.3479594490    0.1938428131   -0.1151224684
H       -0.8284730519    1.0332221643    1.7806585871
H       -1.1098293209   -0.6794920539    1.7287963118
H        0.4300162017    0.4416972417   -0.8435352963
O       -2.6738947778    0.2958097700   -0.1224023509
O        1.4759115641   -0.4350789453    2.0370913314
10   
Iteration 18 Energy -412.54169910
C        0.8483342863   -0.0671620461    1.0556427311
C       -0.6750420073    0.1418597237    1.1760517168
C       -1.4526762092    0.3457276797   -0.1394259439
O       -0.7141863068    0.5754810565   -1.1853483632
O        1.3485149386    0.1926336574   -0.1165946962
H       -0.8323735372    1.0277635587    1.7863780063
H       -1.1066550468   -0.6833818093    1.7209533942
H        0.4279529928    0.4365462878   -0.8466499570
O       -2.6735923329    0.3080129348   -0.1209066076
O        1.4795070534   -0.4232522646    2.0391961364
10   
Iteration 19 Energy -412.54170160
C        0.8478918452   -0.0672185918    1.0557678271
C       -0.6748524743    0.1418704972    1.1762429012
C       -1.4529391299    0.3450869393   -0.1390260756
O       -0.7144157338    0.5730509256   -1.1854572393
O        1.3482916991    0.1938106183   -0.1159600047
H       -0.8327590366    1.0276210447    1.7864297132
H       -1.1065757935   -0.6848386403    1.7221606736
H        0.4268865878    0.4364475441   -0.8471552754
O       -2.6738145415    0.3085204551   -0.1204766396
O        1.4783568335   -0.4256575163    2.0388913115
10   
Iteration 20 Energy -412.54170338
C        0.8483057348   -0.0659754827    1.0558932078
C       -0.6748344248    0.1420479266    1.1762560254
C       -1.4528903614    0.3456122798   -0.1390112764
O       -0.7144629808    0.5706424637   -1.1861645786
O        1.3487405794    0.1949829728   -0.1157256652
H       -0.8340472911    1.0266384012    1.7877599791
H       -1.1056092115   -0.6856351916    1.7205715526
H        0.4269108599    0.4351862193   -0.8479313100
O       -2.6738276852    0.3116066340   -0.1198966723
O        1.4786954494   -0.4247687092    2.0389967575
10   
Iteration 21 Energy -412.54170397
C        0.8482845453   -0.0654841588    1.0560241288
C       -0.6749152829    0.1421303598    1.1763081461
C       -1.4530484334    0.3456709486   -0.1390010227
O       -0.7147293921    0.5687657293   -1.1865302270
O        1.3488221032    0.1960084290   -0.1154920833
H       -0.8346892059    1.0261038786    1.7884862492
H       -1.1054033845   -0.6862676643    1.7199759519
H        0.4272937684    0.4342950685   -0.8479136242
O       -2.6740379731    0.3130619469   -0.1193683208
O        1.4786936213   -0.4251300933    2.0387592765
10   
Iteration 22 Energy -412.54170418
C        0.8481263720   -0.0653745038    1.0561223716
C       -0.6750368853    0.1419586241    1.1763383837
C       -1.4532624197    0.3456040885   -0.1389726524
O       -0.7150574896    0.5675256970   -1.1867055934
O        1.3487349188    0.1965671949   -0.1153689919
H       -0.8351460878    1.0256568232    1.7888171673
H       -1.1053195615   -0.6867323968    1.7197182730
H        0.4277180780    0.4336528588   -0.8476262961
O       -2.6743011730    0.3139068906   -0.1188655881
O        1.4786392167   -0.4255199250    2.0385697752
