3    
Iteration 0 Energy -92.20273240
C        0.0000000000    0.0000000000    0.0000000000
N        0.0000000000    0.0000000000    1.1483800000
H       -1.5853600000    0.0000000000    1.1483800000
3    
Iteration 1 Energy -92.20498085
C       -0.0109107660   -0.0000001184    0.0002427311
N        0.0048651364   -0.0000000034    1.1561207465
H       -1.5793140063    0.0000000750    1.1403970002
3    
Iteration 2 Energy -92.20739391
C       -0.0251221383    0.0000033667    0.0014157399
N        0.0107996817   -0.0000010467    1.1651803150
H       -1.5710183636   -0.0000020893    1.1298717719
3    
Iteration 3 Energy -92.21028438
C       -0.0463419696    0.0000032182    0.0048774866
N        0.0191276191   -0.0000009460    1.1769987097
H       -1.5580923922   -0.0000015800    1.1141845745
3    
Iteration 4 Energy -92.21407515
C       -0.0789042375    0.0000031068    0.0132731512
N        0.0306062610   -0.0000008308    1.1920450710
H       -1.5369466536   -0.0000008902    1.0901758916
3    
Iteration 5 Energy -92.21790197
C       -0.1125416497    0.0000032020    0.0246010279
N        0.0409816377   -0.0000007481    1.2049419727
H       -1.5136007382   -0.0000003137    1.0654676935
3    
Iteration 6 Energy -92.22222362
C       -0.1459146912    0.0000033331    0.0378247781
N        0.0486063820   -0.0000006927    1.2157777124
H       -1.4877686301    0.0000001596    1.0410348177
3    
Iteration 7 Energy -92.22922544
C       -0.1773800315    0.0000033175    0.0507271091
N        0.0429172951   -0.0000006933    1.2256366179
H       -1.4505739547    0.0000004015    1.0181588276
3    
Iteration 8 Energy -92.23564341
C       -0.2032836518    0.0000032743    0.0616021474
N        0.0322792477   -0.0000007192    1.2335265647
H       -1.4139790351    0.0000005234    0.9993939187
3    
Iteration 9 Energy -92.23993617
C       -0.2344952201    0.0000033776    0.0763949237
N        0.0316446165   -0.0000006921    1.2412624962
H       -1.3820302856    0.0000008571    0.9766508533
3    
Iteration 10 Energy -92.24401535
C       -0.2662859219    0.0000034156    0.0923985568
N        0.0270795841   -0.0000006552    1.2482379335
H       -1.3455794475    0.0000011828    0.9535134343
3    
Iteration 11 Energy -92.24577639
C       -0.2987656522    0.0000036445    0.1102182030
N        0.0323955297   -0.0000005706    1.2538048152
H       -1.3182863804    0.0000016753    0.9297563937
3    
Iteration 12 Energy -92.24621774
C       -0.3334566097    0.0000040436    0.1314717563
N        0.0427767398   -0.0000003065    1.2574420811
H       -1.2938234675    0.0000026187    0.9041436519
3    
Iteration 13 Energy -92.24599376
C       -0.3339656235   -0.0002097499    0.1202646128
N        0.0802984022   -0.0002552946    1.2312951524
H       -1.2798847344   -0.0002293762    0.8566868077
3    
Iteration 14 Energy -92.24527728
C       -0.1573743325   -0.0006820735   -0.0974210059
N        0.1744624671   -0.0010222784    1.0319877567
H       -1.1881342509   -0.0008536406    0.6484733867
3    
Iteration 15 Energy -92.24593031
C       -0.2703764101   -0.0005076281    0.0475918120
N        0.1091386192   -0.0006472911    1.1665894208
H       -1.2535276356   -0.0005741507    0.7941306391
3    
Iteration 16 Energy -92.24603900
C       -0.3227581597   -0.0002405836    0.1124116870
N        0.0795591560   -0.0002919441    1.2255278036
H       -1.2826893004   -0.0002631868    0.8579283408
3    
Iteration 17 Energy -92.24604188
C       -0.3184987377    0.0005822263    0.1052703375
N        0.0831987976    0.0005279666    1.2170059742
H       -1.2753269619    0.0005572147    0.8502144127
3    
Iteration 18 Energy -92.24604274
C       -0.3192586244   -0.0175825687    0.1170981308
N        0.0736798256   -0.0176877587    1.2326674650
H       -1.2825369973   -0.0176235808    0.8542330381
