3    
Iteration 0 Energy -75.58539159
O        0.8559100000   -1.3823600000    0.3174600000
H        1.6752400000   -1.8477400000    0.4858000000
H        1.1176100000   -0.4684300000    0.2057500000
3    
Iteration 1 Energy -75.58588085
O        0.8707370904   -1.3762047594    0.3182357691
H        1.6797466789   -1.8803006417    0.4913956803
H        1.0982762307   -0.4420245957    0.1993785475
3    
Iteration 2 Energy -75.58595960
O        0.8657658469   -1.3782673826    0.3179753277
H        1.6790892351   -1.8714947978    0.4899474191
H        1.1039049180   -0.4487678164    0.2010872500
3    
Iteration 3 Energy -75.58595974
O        0.8654714767   -1.3783895484    0.3179599098
H        1.6791198734   -1.8711454559    0.4898966002
H        1.1041686498   -0.4489949924    0.2011534868
