3    
Iteration 0 Energy -92.20273240
C        0.0000000000    0.0000000000    0.0000000000
N        0.0000000000    0.0000000000    1.1483800000
H       -1.5853600000    0.0000000000    1.1483800000
3    
Iteration 1 Energy -92.20498331
C       -0.0109475445    0.0000000000    0.0002149119
N        0.0048783501    0.0000000000    1.1560951698
H       -1.5792908056   -0.0000000000    1.1404499183
3    
Iteration 2 Energy -92.20737857
C       -0.0251695327    0.0000000000    0.0014351502
N        0.0108450579    0.0000000000    1.1651768573
H       -1.5710355199   -0.0000000000    1.1301479748
3    
Iteration 3 Energy -92.21025039
C       -0.0464142256    0.0000000000    0.0049620133
N        0.0192198593    0.0000000000    1.1770388950
H       -1.5581656202   -0.0000000000    1.1147590481
3    
Iteration 4 Energy -92.21401901
C       -0.0790166122    0.0000000000    0.0134549636
N        0.0307661927    0.0000000000    1.1921619422
H       -1.5371095545   -0.0000000000    1.0911430119
3    
Iteration 5 Energy -92.21783591
C       -0.1127700006    0.0000000000    0.0249057279
N        0.0412221507    0.0000000000    1.2051609925
H       -1.5138121095   -0.0000000000    1.0666931597
3    
Iteration 6 Energy -92.22214278
C       -0.1462362949    0.0000000000    0.0382408759
N        0.0489425534    0.0000000000    1.2160676947
H       -1.4880662065   -0.0000000000    1.0424512782
3    
Iteration 7 Energy -92.22913392
C       -0.1779700947    0.0000000000    0.0513039793
N        0.0435108715    0.0000000000    1.2259914376
H       -1.4509007207   -0.0000000000    1.0194644210
3    
Iteration 8 Energy -92.23555872
C       -0.2036725865    0.0000000000    0.0620852009
N        0.0327299844    0.0000000000    1.2338281792
H       -1.4144173420   -0.0000000000    1.0008464579
3    
Iteration 9 Energy -92.23985455
C       -0.2349712147    0.0000000000    0.0769722180
N        0.0321724935    0.0000000000    1.2416127927
H       -1.3825612161   -0.0000000000    0.9781748082
3    
Iteration 10 Energy -92.24396545
C       -0.2665439127    0.0000000000    0.0928759625
N        0.0273413801    0.0000000000    1.2485792137
H       -1.3461573991   -0.0000000000    0.9553046277
3    
Iteration 11 Energy -92.24574806
C       -0.2991008494    0.0000000000    0.1107931422
N        0.0326310691    0.0000000000    1.2542451418
H       -1.3188901388   -0.0000000000    0.9317214860
3    
Iteration 12 Energy -92.24622724
C       -0.3323255018    0.0000000000    0.1312437292
N        0.0425540813    0.0000000000    1.2578613144
H       -1.2955884741   -0.0000000000    0.9076546645
3    
Iteration 13 Energy -92.24598531
C       -0.3547616531    0.0000000031    0.1483127872
N        0.0651423822    0.0000000030    1.2570662705
H       -1.2955699916    0.0000000021    0.8909876516
3    
Iteration 14 Energy -92.24603574
C       -0.3119159186    0.0000006449    0.1261760700
N        0.0532506013    0.0000006129    1.2525164569
H       -1.2950363429    0.0000004501    0.8451537925
3    
Iteration 15 Energy -92.24604233
C       -0.3149225922    0.0000006399    0.1284847678
N        0.0541612545    0.0000006087    1.2522338571
H       -1.2930826374    0.0000004469    0.8434554600
3    
Iteration 16 Energy -92.24604265
C       -0.3139944236    0.0000006257    0.1279455080
N        0.0536226206    0.0000005940    1.2521397712
H       -1.2934344058    0.0000004321    0.8440018953
