8    
Iteration 0 Energy -78.78901860
C       -4.1335981646    0.7031867582    0.0000000000
H       -3.5353267624   -0.1651119546   -0.1796187607
H       -4.0703589241    1.3601150842   -0.8417720585
H       -5.1516621370    0.4103272871    0.1480314696
C       -3.6204276482    1.4289002192    1.2569843911
H       -3.6818360213    2.4863642285    1.1082123793
H       -4.2199221712    1.1518077725    2.0983881728
H       -2.6029713325    1.1527578946    1.4377115310
8    
Iteration 1 Energy -78.78770228
C       -4.1609411394    0.6784937683    0.0073877880
H       -3.4832873688   -0.1177545279   -0.2763384733
H       -4.1293581266    1.3477353267   -0.8439903058
H       -5.1783978770    0.3183552380    0.1012414556
C       -3.6480879531    1.4358397427    1.2820748270
H       -3.5640250679    2.5004811503    1.0998701403
H       -4.2347869364    1.2307498585    2.1694580109
H       -2.6275964809    1.1373002634    1.4899159974
8    
Iteration 2 Energy -78.78646842
C       -4.1615852248    0.6751525720    0.0135838492
H       -3.4385693292   -0.0656841776   -0.3209841445
H       -4.1986456631    1.3672626010   -0.8294642924
H       -5.1548204888    0.2527527655    0.1240027052
C       -3.6549346390    1.4365384697    1.2804620879
H       -3.4881086666    2.4909140427    1.0707286650
H       -4.2763343196    1.2900168382    2.1576873439
H       -2.6534735500    1.0842386396    1.5336032257
8    
Iteration 3 Energy -78.78719665
C       -4.1483772970    0.6853313762    0.0165887886
H       -3.3991625195   -0.0253836939   -0.3539021080
H       -4.2923216001    1.3999582693   -0.8196273504
H       -5.1035025322    0.1918567036    0.1736285216
C       -3.6481797948    1.4333851332    1.2652494192
H       -3.4290834238    2.4852893233    1.0434453668
H       -4.3283185382    1.3506673901    2.1084649681
H       -2.6774968476    1.0100632978    1.5957664579
8    
Iteration 4 Energy -78.78715080
C       -4.1446407102    0.6885422380    0.0184811126
H       -3.3841906313   -0.0010862798   -0.3739342567
H       -4.3314466646    1.4081316708   -0.8103445872
H       -5.0803005406    0.1604542493    0.1894142827
C       -3.6469660851    1.4319024012    1.2603301044
H       -3.3962932040    2.4778089973    1.0342671303
H       -4.3482162496    1.3832116293    2.0906507803
H       -2.6943352911    0.9821586099    1.6207207627
8    
Iteration 5 Energy -78.78808439
C       -4.1364834091    0.6998134611    0.0159838859
H       -3.3753659274    0.0234153880   -0.3950802407
H       -4.3833264134    1.4188315054   -0.7955849103
H       -5.0380468866    0.1197971547    0.2130953178
C       -3.6369082924    1.4269683519    1.2516978101
H       -3.3645837859    2.4675314310    1.0306643262
H       -4.3725730396    1.4300578614    2.0559849170
H       -2.7187436079    0.9445087730    1.6526562100
8    
Iteration 6 Energy -78.78890658
C       -4.1287329587    0.7104707285    0.0095125476
H       -3.3715319805    0.0429960094   -0.4158927457
H       -4.4327517443    1.4229099825   -0.7797234982
H       -4.9943079506    0.0858877065    0.2337097988
C       -3.6240295834    1.4234623690    1.2455644627
H       -3.3371413932    2.4588841907    1.0323950548
H       -4.3907662542    1.4728036932    2.0196892432
H       -2.7463413301    0.9131964222    1.6839481823
8    
Iteration 7 Energy -78.78956288
C       -4.1256210380    0.7138422704    0.0033147065
H       -3.3702220844    0.0538922035   -0.4274675751
H       -4.4566981413    1.4214862998   -0.7682274217
H       -4.9722673551    0.0702299447    0.2420330888
C       -3.6163564018    1.4238129019    1.2451638506
H       -3.3221646496    2.4536722155    1.0340350104
H       -4.3975898021    1.4937090124    2.0020137883
H       -2.7644306598    0.8997394728    1.6981721577
8    
Iteration 8 Energy -78.79039725
C       -4.1265155861    0.7119137936   -0.0067334241
H       -3.3714540649    0.0611559381   -0.4343630765
H       -4.4656967015    1.4137718130   -0.7608267706
H       -4.9640471238    0.0658677771    0.2424816298
C       -3.6093785419    1.4277849111    1.2514711601
H       -3.3135768330    2.4489284560    1.0364414556
H       -4.3973020060    1.5009253111    1.9962993373
H       -2.7771300814    0.8997184027    1.7040328118
8    
Iteration 9 Energy -78.79063337
C       -4.1305492974    0.7071109789   -0.0094185790
H       -3.3718373345    0.0610159271   -0.4330196274
H       -4.4571756846    1.4099789492   -0.7643652637
H       -4.9738167142    0.0706560963    0.2358595115
C       -3.6108017455    1.4306622320    1.2574814397
H       -3.3148754590    2.4484769561    1.0361184708
H       -4.3929182780    1.4942316977    2.0062057919
H       -2.7731752036    0.9079031930    1.6999262668
8    
Iteration 10 Energy -78.79068583
C       -4.1333778127    0.7043977074   -0.0091416410
H       -3.3713239566    0.0602567420   -0.4305649359
H       -4.4494787804    1.4095081124   -0.7672324576
H       -4.9817793147    0.0740729876    0.2316013712
C       -3.6132501711    1.4315319677    1.2604282151
H       -3.3170615541    2.4486602245    1.0346768806
H       -4.3904930738    1.4888830736    2.0138574676
H       -2.7684756753    0.9127580037    1.6952060376
8    
Iteration 11 Energy -78.79069651
C       -4.1337188728    0.7042443495   -0.0088225504
H       -3.3709362084    0.0607106846   -0.4305365367
H       -4.4491342010    1.4097461446   -0.7672020613
H       -4.9822312688    0.0737944580    0.2313082824
C       -3.6136957575    1.4314120725    1.2605931950
H       -3.3167389531    2.4484596463    1.0342164740
H       -4.3905337538    1.4889932846    2.0144569480
H       -2.7682721484    0.9127161152    1.6948423065
8    
Iteration 12 Energy -78.79070248
C       -4.1337556419    0.7042766406   -0.0087118072
H       -3.3707514575    0.0611004743   -0.4307369612
H       -4.4494610634    1.4098223266   -0.7670017727
H       -4.9819923835    0.0734164611    0.2313971785
C       -3.6137822081    1.4313357888    1.2605576372
H       -3.3163294344    2.4482789439    1.0340522351
H       -4.3907026465    1.4893958771    2.0143255065
H       -2.7685076357    0.9124411847    1.6949857357
8    
Iteration 13 Energy -78.79070603
C       -4.1337484598    0.7042975509   -0.0086888960
H       -3.3706519071    0.0613455994   -0.4309086170
H       -4.4497571775    1.4098373612   -0.7668632767
H       -4.9817722061    0.0731646450    0.2314775796
C       -3.6137888419    1.4313124786    1.2605319963
H       -3.3160422310    2.4481684569    1.0339844148
H       -4.3908120606    1.4896829749    2.0141769115
H       -2.7687118104    0.9122475444    1.6951498618
8    
Iteration 14 Energy -78.79070733
C       -4.1339745672    0.7039792092   -0.0091907751
H       -3.3707477735    0.0613158083   -0.4312631130
H       -4.4499755463    1.4095536269   -0.7672299493
H       -4.9819954208    0.0730067951    0.2310149600
C       -3.6135980132    1.4316409808    1.2610832993
H       -3.3157898857    2.4482774385    1.0342545245
H       -4.3905910387    1.4898617358    2.0146506168
H       -2.7686125645    0.9125202989    1.6956399370
8    
Iteration 15 Energy -78.79070942
C       -4.1337323125    0.7043114444   -0.0086962009
H       -3.3705677085    0.0615810531   -0.4311015237
H       -4.4500850073    1.4098336774   -0.7667298614
H       -4.9815380583    0.0729154734    0.2315575001
C       -3.6137704285    1.4313120068    1.2605201003
H       -3.3157471099    2.4480693090    1.0339450843
H       -4.3909154735    1.4899773437    2.0140198496
H       -2.7689304334    0.9120613591    1.6953535106
8    
Iteration 16 Energy -78.79071020
C       -4.1337309224    0.7043118129   -0.0086968669
H       -3.3705385549    0.0616347844   -0.4311338315
H       -4.4501486471    1.4098389296   -0.7666978791
H       -4.9814977392    0.0728710374    0.2315790765
C       -3.6137696501    1.4313116220    1.2605162918
H       -3.3156872013    2.4480467106    1.0339198683
H       -4.3909394481    1.4900259057    2.0139869882
H       -2.7689748695    0.9120171623    1.6953832982
